* C:\Users\Sam S. AME\Documents\LTspiceXVII\PassiveToneControl_ports.asc
Va N001 N004 V
Vb N002 N004 V
Vc N003 N005 V
Vd N008 N007 V
Ve N009 N004 V
Vf N010 N007 V
Ra N001 N006 Ra
Rb N002 N005 2.2163
Rc N003 N006 47000
Rd N006 N008 473.4848
Re N007 N009 47000
Rf N005 N010 250000
.backanno
.end
